<?xml version="1.0" encoding="UTF-8"?>
<!--
Luxembourg SUMO Traffic (LuST) Scenario
This project is licensed under the terms of the MIT license.
Author: Lara CODECA [codeca@gmail.com]
-->

<routes xmlns:xsi="http://www.w3.org/2001/XMLSchema-instance" xsi:noNamespaceSchemaLocation="http://sumo.dlr.de/xsd/routes_file.xsd">  

  <vehicle id="ccu202011281" type="police" depart="392.00" departPos="87.40" departSpeed="20.00" arrivalPos="51.85" arrivalSpeed="20.00">
        <route edges="-30852 -30462 --30768#1 --30768#0 -31230#2 -32628 --31272#2 --31272#1 --31272#0 -30528#21 -30528#22 -30528#23 -31846#0 -31846#1 -31904#0 -31904#1 -31904#2 --30398#9 --30398#8 -32948#1"/>
    </vehicle>
  <vehicle id="carIn34536:1" type="passenger1" depart="392.00" departPos="random" departSpeed="0.00" arrivalPos="random" arrivalSpeed="0.00">
        <route edges="-32792#0 -32792#1 -32122#0 -32122#1 --30528#54 --30528#53 --30528#52 --30528#51 --30528#50 --30528#49 --30528#48 --30528#47 --30528#46 --30528#45 --30528#44 --30528#43 --31794#7 --31794#6 --31794#5 --31794#4 --31794#3 --31794#2 --31794#1 -32150 -31944#0 -31944#1 -31944#2 -31944#3 -31944#4 -31944#5 -31944#6"/>
    </vehicle>
    <vehicle id="carIn44174:1" type="passenger1" depart="392.00" departPos="random" departSpeed="0.00" arrivalPos="random" arrivalSpeed="0.00">
        <route edges="-32112 -31132#1 -31132#2 -32200#0 --30860#10 --30860#9 --30860#8 --30860#7 --30860#6 --30860#5 --30860#4 --30860#3 --30860#2 --30860#1 --30860#0 --30632#1 --30632#0 -30338 -31780 --31068#1 --31068#0 -30528#2 -30528#3 -30528#4 -30528#5 -30528#6 -30528#7 -30528#8 -30528#9 -30528#10 -30528#11 -30528#12 -30528#13 -30528#14 -30528#15 -30528#16 -30528#17 -30528#18 -30528#19 -30528#20 -30528#21 -30528#22 -30528#23 -30528#24 -30528#25 -30528#26 -30528#27 -30528#28 -30528#29 -30528#30 -30528#31 -30528#32 -30528#33 -30528#34 -30528#35 -30528#36 -30528#37 -30528#38 -30528#39 -30528#40 -30528#41 -30528#42 --31794#7 --31794#6 --31794#5 --31794#4 -31884#0 -31884#1 -31884#2 -31884#3 -31884#4 -31034#0 -31034#1 -31034#2 -31034#3 -31034#4 --32756#2 --32756#1 --32756#0 -30762#1 --31452#0"/>
    </vehicle>
    <vehicle id="carIn6428:1" type="passenger2b" depart="392.00" departPos="random" departSpeed="0.00" arrivalPos="random" arrivalSpeed="0.00">
        <route edges="-30706#0 -30706#0-AddedOffRampEdge -30706#1 -30706#2-AddedOnRampEdge -30706#2 -30706#3-AddedOnRampEdge -30706#4 -32798-AddedOnRampEdge -32798 -31876#1 -30496#0 -30496#1 -30496#2 -30496#3 -30496#4 -30496#5 --30528#31 --30528#30 --30528#29 --30528#28 --30528#27 --30528#26 --30528#25 --30528#24 --30528#23 --30528#22 --30528#21 --30528#20 --30528#19 --30528#18 --30528#17 --30528#16 -32410#0 -32410#1 -32410#2 --30608#10 --30608#9 --30608#8 --30608#7 --30608#6 --30608#5 --30608#4"/>
    </vehicle>
    <vehicle id="carIn6598:1" type="passenger1" depart="392.00" departPos="random" departSpeed="0.00" arrivalPos="random" arrivalSpeed="0.00">
        <route edges="-31622#0 -31622#0-AddedOffRampEdge -31694 -32770#5 -32770#6 -32278#0 -32278#1 -32278#2 -32278#3 -32278#4 -32278#5 -32278#6 --30620 -31504#0 -31504#1 -31504#2 -30962#0 -30962#1 -30962#2 --30892 -30892#0 -30892#1 -30892#2 -30892#3 -30892#4 -30892#5 -30892#6 -30892#7 -30892#8 -30892#9 -30892#10 -30892#11 -30892#12 -30892#13 -30892#14 -30892#15 -30892#16 -30892#17 -30892#18 -30892#19 --30560 --31966#13 --31966#12 --31966#11 --31966#10 --31966#9 --32046#3 --31348 -32392#4 -32504#5"/>
    </vehicle>
    <vehicle id="h65013c1:1" type="passenger1" depart="392.00" departPos="random" departSpeed="0.00" arrivalPos="random" arrivalSpeed="0.00">
        <route edges="-32250#1 --30616#2 --30616#1 --30616#0 -32414#2 --31768#8 --31768#7 --31768#6 --31768#5 --31768#4 --31768#3 --31768#2 --31768#1 --31768#0 -30924#1 -31372 -32830#1 --31940#6 --31940#5 --31940#4 --31940#3 --31940#2 --31940#1 --31940#0 --30256#3 --30256#2 --30256#1 --30256#0 --31834#2 -30384#6 -30384#7 -30944 --31504#2 -30646#0 -30646#1 -30646#2 -30646#3 --32458#3"/>
    </vehicle>
	
    <vehicle id="carIn23373:1" type="passenger2a" depart="393.00" departPos="random" departSpeed="0.00" arrivalPos="random" arrivalSpeed="0.00">
        <route edges="--31552 -31162#3 -31496#0 -31496#1 -31496#2 -31496#3 -31496#4 -31496#5 -31496#6 -31496#7 -31496#8 -31496#9 -31496#10 -31496#11 -31496#12 -31496#13 -31496#14 -32750#0 -32750#1 -32750#2 -32750#3 -32750#4 -32750#5 -32750#6 -32750#7 -32750#8 -32750#9 -32750#10 -32750#11 -32750#12 -30528#5 -30528#6 --32924#4 --32924#3 --32924#2 --32924#1 --32924#0"/>
    </vehicle>
    <vehicle id="carIn24286:1" type="passenger1" depart="393.00" departPos="random" departSpeed="0.00" arrivalPos="random" arrivalSpeed="0.00">
        <route edges="--31452#1 --31452#0 -32952#1 --31462#3 --31462#2 --31462#1 --31462#0 -31680#1 -31680#2 --30892#26 --30892#25 --30892#24 --30892#23 --30892#22 --30892#21 --30892#20 --30892#19 --30892#18 --30892#17 --30892#16 --30892#15 --30892#14 --30892#13 --30892#12 --30892#11 --30892#10 -32924#9 -32924#10 -32924#11 -32924#12 -32924#13 -32924#14 --32750#3 --32750#2 --32750#1 --32750#0 --31496#14 --31496#13 --31496#12 --31496#11 --31496#10 --31496#9 --31496#8 --31496#7 --31496#6 --31496#5 --31496#4 -32306#0 -32306#1 -32306#2 -32306#3 -32306#4 -30772#3 -30772#1 -31896 -31578#5 -31578#1 -31578#2 -31684 -31860#1 -31860#2 -31004#1 -31004#2 --30616#4 --30616#3"/>
    </vehicle>
    <vehicle id="carIn36453:1" type="passenger2a" depart="393.00" departPos="random" departSpeed="0.00" arrivalPos="random" arrivalSpeed="0.00">
        <route edges="--31448 --32552#5 --32552#4 --32552#3 --32552#2 --32552#1 --32552#0 -30648#13 -30648#14 -30648#15 -31492#0 -31492#1 -30528#0 -30528#1 -30528#2 -30528#3 -30528#4 -30528#5 -30528#6 -32924#5 -32924#6 -32924#7 -32924#8 -30892#10 -30892#11 -30892#12 -30892#13 -30892#14 -30892#15 -30892#16 -30892#17 -30892#18 -30892#19 -30892#20 -30892#21 -30892#22 -30892#23 -30892#24 -30892#25 -30892#26"/>
    </vehicle>
    <vehicle id="carIn44519:1" type="passenger2b" depart="393.00" departPos="random" departSpeed="0.00" arrivalPos="random" arrivalSpeed="0.00">
        <route edges="-31114 -32836#0 -32836#1 --30916#2 --30916#1 --30916#0 -31952#12 -31952#13 -31952#14 -31952#15 -31952#16 -31952#17 -31952#18 --30256#0 --31834#2 -30384#6 --31838#1 -30962#2 --30892 -30892#0 -30892#1 -30892#2 -30892#3 -30892#4 -30892#5 -30892#6 -30892#7 -30892#8 -30892#9 -30892#10 -30892#11 -30892#12 -30892#13 -30892#14 -30892#15 -30892#16 -30892#17 -30892#18 -30892#19 -30892#20 -30892#21 -30892#22 -30892#23 -30892#24 -30892#25 -30892#26 -31680#3 -31680#4 -31462#0 -31462#1 -31462#2 -31462#3 -32952#2 -32952#0 -31452#0 --30762#1 -32756#0"/>
    </vehicle>
    <vehicle id="h17388c1:1" type="passenger3" depart="393.00" departPos="random" departSpeed="0.00" arrivalPos="random" arrivalSpeed="0.00">
        <route edges="--31576#1"/>
    </vehicle>
    <vehicle id="h22944c1:1" type="passenger1" depart="393.00" departPos="random" departSpeed="0.00" arrivalPos="random" arrivalSpeed="0.00">
        <route edges="--31960#2 --30880#1 --30880#0 --30756#3 --30756#2 --30756#1 --30756#0 --30856#10 --30856#9 --30856#8 --30856#7 --30856#6 --30856#5 --30856#4 --30856#3 --30856#2 --32530#1 --31154 --32280#3 -30608#6 -30608#7 -32468#0 -32468#1 -32468#2 -32468#3 -32468#4 -32126#0 --30902#10 --30902#9 --30902#8 --30902#7 --30902#6"/>
    </vehicle>
    <vehicle id="h54466c1:1" type="passenger1" depart="393.00" departPos="random" departSpeed="0.00" arrivalPos="random" arrivalSpeed="0.00">
        <route edges="-31542#0 -32826#0 --32380 --31990#0 -31496#6 -31496#7 -31496#8 -31496#9 -31496#10 -31496#11 -31496#12 -31496#13 -31496#14 -32750#0 -32750#1 -32750#2 -32750#3 -32750#4 -32750#5 -32750#6 -32750#7 -32750#8 -32750#9 -32750#10 -32750#11 -32750#12 --30528#4 --30528#3 --30528#2 --30528#1 --30528#0 -31492#2 --32674#9 --31180#1 --31180#0 -31594#1 -31594#2 -31594#3"/>
    </vehicle>
    <vehicle id="carIn5481:1" type="passenger1" depart="394.00" departPos="random" departSpeed="0.00" arrivalPos="random" arrivalSpeed="0.00">
        <route edges="-30668#0 -30668#0-AddedOffRampEdge -30668#1 -30668#2-AddedOnRampEdge -30668#2 -30668#2-AddedOffRampEdge -31614 -30924#4 -30924#1 -31372 -32830#1 --31940#6 --31940#5 --31940#4 --31940#3 --31940#2 --31940#1 --31940#0 --30256#3 --30256#2 --30256#1 --30256#0 --31834#2 -30384#6 -30384#7 -30944 --31504#2 --31504#1 --31504#0 -30620 --31070#9 --31070#8 -30444#0 -30444#1 -32350#0 -32972 --31586#3 --31586#2 --31586#1 --31586#0"/>
    </vehicle>
    <vehicle id="h15261c1:1" type="passenger3" depart="394.00" departPos="random" departSpeed="0.00" arrivalPos="random" arrivalSpeed="0.00">
        <route edges="--31428#0 -30528#37 -30528#38 -30528#39 -30528#40 -30528#41 -30528#42 -30528#43 -30528#44 -30528#45 -30528#46 -30528#47 -30528#48 -30528#49 -30528#50 -30528#51 -30528#52 -30528#53 -30528#54 -30528#55 -30528#56 -30528#57"/>
    </vehicle>
    <vehicle id="carIn21001:1" type="passenger5" depart="395.00" departPos="random" departSpeed="0.00" arrivalPos="random" arrivalSpeed="0.00">
        <route edges="--31552 -31162#3 -31496#0 -31496#1 -31496#2 -31496#3 -31496#4 -31496#5 --32664#2 --32664#1 --32664#0 --31118#2 --31118#1 --31118#0 -32784#2 --32064#2 --32064#1"/>
    </vehicle>
    <vehicle id="carIn28124:1" type="passenger2a" depart="395.00" departPos="random" departSpeed="0.00" arrivalPos="random" arrivalSpeed="0.00">
        <route edges="-32866#0 -31966#0 -31966#1 -31966#2 -31966#3 -31966#4 -31966#5 -31966#6 -31966#7 -31966#8 -31966#9 -31966#10 -31966#11 -31966#12 -31966#13 --32184 --30892#19 --30892#18 --30892#17 --30892#16 --30892#15 --30892#14 --30892#13 --30892#12 --30892#11 --30892#10 --32924#8 --32924#7 --32924#6 --32924#5 --30528#6 --30528#5 --30528#4 --30528#3 --30528#2 --30528#1 --30528#0 --31492#1 --31492#0 --30648#15 --30648#14 --30648#13 --30648#12 --30648#11 --30648#10 --30648#9 -32194 -30654 -32224#0 --30664#1 --30664#0"/>
    </vehicle>
    <vehicle id="carIn31263:1" type="passenger1" depart="395.00" departPos="random" departSpeed="0.00" arrivalPos="random" arrivalSpeed="0.00">
        <route edges="-30706#0 -30706#0-AddedOffRampEdge -31268#0 -31840#0 -31840#1 -31622#7-AddedOnRampEdge -31622#7 -31622#7-AddedOffRampEdge -31622#8 -31622#8-AddedOffRampEdge -31622#9 -31622#10-AddedOnRampEdge -31622#10 -31622#10-AddedOffRampEdge -32932 --32306#1 --32306#0 --31496#3 --31496#2 --31496#1 --31496#0 -31162#4 -31162#1 --32766"/>
    </vehicle>
    <vehicle id="carIn36446:1" type="passenger4" depart="395.00" departPos="random" departSpeed="0.00" arrivalPos="random" arrivalSpeed="0.00">
        <route edges="-32970 -32862#2 --30856#19 -32674#0 -32674#1 -32674#2 -32674#3 -32674#4 -32674#5 -32674#6 -32674#7 -32674#8 -32674#9 --31492#2 -30528#0 -30528#1 -30528#2 -30528#3 -31834#0 -31834#1 -31834#2 -30256#0 --31952#18 --31952#17 --31952#16 --31952#15 --31952#14 --31952#13 --31952#12 -30916#0 -30916#1 -30916#2"/>
    </vehicle>
    <vehicle id="h2927c1:1" type="passenger1" depart="395.00" departPos="random" departSpeed="0.00" arrivalPos="random" arrivalSpeed="0.00">
        <route edges="--30468#1 --30468#0 --31952#7 --31952#6 --31952#5 --31952#4 --31952#3 --31952#2 --31952#1 --31952#0 -30648#14 -30648#15 -31492#0 -31492#1 -30528#0 -30528#1 -30528#2 -30528#3 -30528#4 -30528#5 -30528#6 -32924#5 -32924#6 -32924#7 -32924#8 -30892#10 -30892#11 -30892#12 -30892#13 -30892#14 -30892#15 -30892#16 -30892#17 -30892#18 -30892#19 -30892#20 -30892#21 -30892#22 -30892#23 -30892#24 -30892#25 -30892#26 -31680#3 -31680#4 -31680#1 -32532 -32848 -31078#1 -32692 -30540#2 -30394 -32400#2-AddedOnRampEdge -32400#2 -32400#2-AddedOffRampEdge -32400#3 -32400#4-AddedOnRampEdge -32400#4 -32400#5-AddedOnRampEdge -32400#5"/>
    </vehicle>
    <vehicle id="h30170c1:1" type="passenger2a" depart="395.00" departPos="random" departSpeed="0.00" arrivalPos="random" arrivalSpeed="0.00">
        <route edges="-32542#2 -32542#3 -32542#4 -31818#9 -31818#10 -31818#11 -31818#12 -31818#13 -31818#14 -31818#15 -31818#16 -31818#17 -31818#18 --31716 --31766 -32432#13 -32432#14 -32432#15 -32382#2 --32468#7 --32468#6 --32468#5 --32468#4 --32468#3 --32468#2 --32468#1 --32468#0 --30608#7 --30608#6 -32280#3 -31154 -32530#1 -30856#2 -30856#3 -30856#4 -30856#5 -30856#6"/>
    </vehicle>
    <vehicle id="randUni15120:1" type="passenger2a" depart="395.00" departPos="random" departSpeed="0.00" arrivalPos="random" arrivalSpeed="0.00">
        <route edges="--32492#0 -30596#1 -30596#2 -31070#5 -31070#6 -32864#0 -32864#1 -30610#1 -32974#0 -32278#6 --30620 --31068#1 --31068#0 --30528#1 --30528#0 -31492#2 --32674#9 --31180#1 --31180#0 -31594#1 -31594#2 -32530#0"/>
    </vehicle>
    <vehicle id="h48843c2:1" type="passenger4" depart="396.00" departPos="random" departSpeed="0.00" arrivalPos="random" arrivalSpeed="0.00">
        <route edges="-31108 --31364#8 --31364#7 --31364#6 --31364#5 --31364#4 --31364#3 --31364#2 --31364#1 --31364#0 -32674#6 -30856#0 -30856#1 --32530#1 --31154 --32280#3 --30608#5"/>
    </vehicle>
	 <vehicle id="ccu202011282" type="police" depart="397.00" departPos="87.40" departSpeed="20.00" arrivalPos="51.85" arrivalSpeed="20.00">
        <route edges="-30852 -30462 --30768#1 --30768#0 -31230#2 -32628 --31272#2 --31272#1 --31272#0 -30528#21 -30528#22 -30528#23 -31846#0 -31846#1 -31904#0 -31904#1 -31904#2 --30398#9 --30398#8 -32948#1"/>
    </vehicle>
    <vehicle id="carIn49457:1" type="passenger2a" depart="397.00" departPos="random" departSpeed="0.00" arrivalPos="random" arrivalSpeed="0.00">
        <route edges="-30668#0 -30668#0-AddedOffRampEdge -30366 -31226#3 -31226#4 --32878#8 --32878#7 --32878#6 --32878#5 --32878#4 -31768#4 -31768#5 -31768#6 -31768#7 -31768#8 -32414#0 -30314#0 -30314#1"/>
    </vehicle>
    <vehicle id="carIn49827:1" type="passenger2a" depart="397.00" departPos="random" departSpeed="0.00" arrivalPos="random" arrivalSpeed="0.00">
        <route edges="--30542#1 --30872#11 --31272#7 --30892#16 --30892#15 --30892#14 --30892#13 --30892#12 --30892#11 --30892#10 --32924#8 --32924#7 --32924#6 --32924#5 --30528#6 --30528#5 --30528#4 --30528#3 --30528#2 -31068#0 -31068#1 -30620 --32278#6 --32278#5 --31258#1 --31258#0 --31070#3 --31070#2"/>
    </vehicle>
    <vehicle id="h24600c1:1" type="passenger5" depart="397.00" departPos="random" departSpeed="0.00" arrivalPos="random" arrivalSpeed="0.00">
        <route edges="--32088 -31868#2 --31462#1 --31462#0 -31680#1 -31680#2 --30892#26 --30892#25 --30892#24 --30892#23 --30892#22 --30892#21 --30892#20 --30892#19 --30892#18 --30892#17 --30892#16 --30892#15 --30892#14 --30892#13 --30892#12 --30892#11 --30892#10 --32924#8 --32924#7 --32924#6 --32924#5 --30528#6 --30528#5 --30528#4 --30528#3 --30528#2 -31068#0 -31068#1 -32574 -30632#0 -30632#1 -30860#0 -30860#1 -30860#2 -30860#3 -30860#4 -30860#5 -30860#6 -30860#7 -30860#8 -30860#9 -30860#10 --32200#0 -31132#3 -31132#1 --32266"/>
    </vehicle>
    <vehicle id="carIn31587:1" type="passenger2a" depart="398.00" departPos="random" departSpeed="0.00" arrivalPos="random" arrivalSpeed="0.00">
        <route edges="-30706#0 -30706#0-AddedOffRampEdge -30706#1 -30706#2-AddedOnRampEdge -30706#2 -30706#3-AddedOnRampEdge -30706#4 -32798-AddedOnRampEdge -32798 -31876#1 -30496#0 -30496#1 -30496#2 -30496#3 -30496#4 -30496#5 --30528#31 --30528#30 --30528#29 --30528#28 --30528#27 --30528#26 --30528#25 --30528#24 -31846#0 -31846#1 -31846#2 -31846#3 --30694#0 -31818#22 -31818#23 -32382#1 -32382#2 --32468#7 --32468#6 --32468#5 --32468#4 --31886#3 --31886#2 -30534#1 --32964#7"/>
    </vehicle>
    <vehicle id="carIn36658:1" type="passenger2a" depart="398.00" departPos="random" departSpeed="0.00" arrivalPos="random" arrivalSpeed="0.00">
        <route edges="-30984 --32170#0 --31034#4 --31034#3 --31034#2 --31034#1 --31034#0 --31884#4 --31884#3 --31884#2 --31884#1 --31884#0 -31794#4 -31794#5 -31794#6 -31794#7 --30528#42 --30528#41 --30528#40 --30528#39 --30528#38 --30528#37 --30528#36 --30528#35 --30528#34 --30528#33 --30528#32 --30528#31 --30528#30 --30528#29 --30528#28 --30528#27 --30528#26 --30528#25 --30528#24 --30528#23 --30528#22 --30528#21 -31272#0 -31272#1 -31272#2 -31272#3 -31272#4 -31272#5 -31272#6 --30892#16 --30892#15 --30892#14 --30892#13 --30892#12 --30892#11 --30892#10 -32924#9 -32924#10 -32924#11 -32924#12 -32924#13 -32924#14 --32750#3 --32750#2 --32750#1 --32750#0 --31496#14 --31496#13 --31496#12 --31496#11 --31496#10 --31496#9 --31496#8 --31496#7 --31496#6 --31496#5 --31496#4 --31496#3 --31466#3 --31466#2 --31466#1 --31466#0 -30888#1 -30888#2 -30404#0 --31436#2 --31436#1"/>
    </vehicle>
    <vehicle id="carIn44974:1" type="passenger2b" depart="398.00" departPos="random" departSpeed="0.00" arrivalPos="random" arrivalSpeed="0.00">
        <route edges="-32426#0 -32426#0-AddedOffRampEdge -31128 -31604 -30590#5 -30590#6 -30590#7 --32866#1 -31966#0 -31966#1 -31966#2 -32612 --32742#0"/>
    </vehicle>
    <vehicle id="h41687c2:1" type="passenger4" depart="398.00" departPos="random" departSpeed="0.00" arrivalPos="random" arrivalSpeed="0.00">
        <route edges="-30674 --31034#1 --31034#0 --31884#4 --31884#3 --31884#2 --31884#1 --31884#0 -31794#4 -31794#5 -31794#6 -31794#7 --30528#42 --30528#41 --30528#40 --30528#39"/>
    </vehicle>
    <vehicle id="carIn2078:1" type="passenger2a" depart="399.00" departPos="random" departSpeed="0.00" arrivalPos="random" arrivalSpeed="0.00">
        <route edges="-30668#0 -30668#0-AddedOffRampEdge -30668#1 -30668#2-AddedOnRampEdge -30668#2 -30668#2-AddedOffRampEdge -30668#3 -30668#4-AddedOnRampEdge -30668#4 -30668#4-AddedOffRampEdge -31762 --32306#3 --32306#2 --32306#1 --32306#0 -31496#4 -31496#5 -31496#6 -31496#7 -31496#8 -31496#9 -31496#10 -31496#11 -31496#12 -31496#13 -31496#14 -32750#0 -32750#1 -30872#4 -30872#5 -30872#6 -30872#7 -30872#8 -30872#9 -30872#10"/>
    </vehicle>
    <vehicle id="carIn36709:1" type="passenger1" depart="399.00" departPos="random" departSpeed="0.00" arrivalPos="random" arrivalSpeed="0.00">
        <route edges="--30542#1 --30542#0 -32788#3 -32064#0 -32064#1 -32064#2 -32784#3 -32784#1 -31118#0 -31118#1 -31118#2 -32664#0 -32664#1 -32664#2 --31496#5 --31496#4 --31496#3 --31466#3 --31466#2 --31466#1 --31466#0 -30888#1 -30888#2 -30404#0"/>
    </vehicle>
    <vehicle id="carIn39016:1" type="passenger1" depart="399.00" departPos="random" departSpeed="0.00" arrivalPos="random" arrivalSpeed="0.00">
        <route edges="-32426#0 -32426#0-AddedOffRampEdge -32426#1 -32426#2-AddedOnRampEdge -32426#2 -32426#2-AddedOffRampEdge -32454#0 -32454#1-AddedOnRampEdge -32454#1 -32454#1-AddedOffRampEdge -32860 -32788#2 -32788#3 -32064#0 -32064#1 -32064#2 -32784#3 -32784#1 -31118#0 -31118#1 --32106#1 --32106#0 -31706#2 --32776#9 --32776#8 --32776#7 -31652#0"/>
    </vehicle>
    <vehicle id="carIn8972:1" type="passenger4" depart="399.00" departPos="random" departSpeed="0.00" arrivalPos="random" arrivalSpeed="0.00">
        <route edges="-30706#0 -30706#0-AddedOffRampEdge -31268#0 -31268#1 -31268#2 -30668#12-AddedOnRampEdge -30668#12 -30668#12-AddedOffRampEdge -32582 -32764#4 -30964"/>
    </vehicle>
    <vehicle id="h24926c1:1" type="passenger1" depart="399.00" departPos="random" departSpeed="0.00" arrivalPos="random" arrivalSpeed="0.00">
        <route edges="--32124#1 --32124#0 --31910#3 --31768#0 -30924#1 -31372 -32830#1 --31940#6 --31940#5 --31940#4 --31940#3 --31940#2 --31940#1 --31940#0 --30256#3 --30256#2 --30256#1 --30256#0 --31834#2 -30384#6 -30384#7 -30944 --31504#2 --31504#1 --31504#0 -30620 --32278#6 --32278#5 --32278#4"/>
    </vehicle>
    <vehicle id="h39698c2:1" type="passenger1" depart="399.00" departPos="random" departSpeed="0.00" arrivalPos="random" arrivalSpeed="0.00">
        <route edges="-30516#0 -30516#1 --32940#3 --32940#2 -32278#1 -32278#2 -32278#3 -32278#4 -32278#5 --32974#0 -30610#2 -31080#0 -31080#1 --31070#5"/>
    </vehicle>
    <vehicle id="carIn6938:1" type="passenger5" depart="400.00" departPos="random" departSpeed="0.00" arrivalPos="random" arrivalSpeed="0.00">
        <route edges="--31448 --32552#5 --32552#4 --32552#3 --32552#2 --32552#1 --32552#0 -30648#13 -31952#0 -31952#1 -31952#2 -31952#3 -31952#4 -31952#5 -31952#6 -31952#7 -31952#8 -31952#9 -31952#10 -31952#11 -31952#12 --31910#8 --31910#7 --31910#6 --31910#5 --31894#2 --31894#1"/>
    </vehicle>
	
	 <vehicle id="ccu202011283" type="police" depart="400.00" departPos="87.40" departSpeed="20.00" arrivalPos="51.85" arrivalSpeed="20.00">
        <route edges="-30852 -30462 --30768#1 --30768#0 -31230#2 -32628 --31272#2 --31272#1 --31272#0 -30528#21 -30528#22 -30528#23 -31846#0 -31846#1 -31904#0 -31904#1 -31904#2 --30398#9 --30398#8 -32948#1"/>
    </vehicle>
    <vehicle id="h62286c1:1" type="passenger3" depart="400.00" departPos="random" departSpeed="0.00" arrivalPos="random" arrivalSpeed="0.00">
        <route edges="-32058#8 -31906#0 -31906#1 -31906#2 -31906#3 -31906#4 --32328 -31414#1 --32596#1 --32596#0 -32050#2 -32050#3 -32050#4 -31806#0 -31806#1 -31496#9 -31496#10 -31496#11 -31496#12 -31496#13 -31496#14 -32750#0 -32750#1 -32750#2 -32750#3 --32924#14 --32924#13 --32924#12 --32924#11 --32924#10 --32924#9 -30892#10 -30892#11 -30892#12 -30892#13 -30892#14 -30892#15 -30892#16 -30892#17 -30892#18 -30892#19 -30892#20 -30892#21 -30892#22 -30892#23 -30892#24 -30892#25 -30892#26 -31680#3 -31680#4 -31462#0 -31462#1 -31462#2 -31462#3 -32952#2 -32952#0 -31452#0 --30762#1"/>
    </vehicle>
    <vehicle id="h73081c1:1" type="passenger4" depart="400.00" departPos="random" departSpeed="0.00" arrivalPos="random" arrivalSpeed="0.00">
        <route edges="-32842#0 -32842#1 --30850#3 --30850#2 --30850#1 --30850#0 --32552#0 -30648#13 -31952#0 -31952#1 -31952#2 -31952#3 -31952#4 -31952#5 -31952#6 -31952#7 -31952#8 -31952#9 -31952#10 -31952#11 -30916#0 -30916#1 -30916#2"/>
    </vehicle>
    <vehicle id="carIn23754:1" type="passenger2a" depart="402.00" departPos="random" departSpeed="0.00" arrivalPos="random" arrivalSpeed="0.00">
        <route edges="-32040 -31180#1 -32674#9 --31492#2 -30528#0 -30528#1 -31068#0 -31068#1 -30620 --32278#6 --32278#5 --31258#1 -31942#0 --32006"/>
    </vehicle>
    <vehicle id="carIn2704:1" type="passenger2b" depart="402.00" departPos="random" departSpeed="0.00" arrivalPos="random" arrivalSpeed="0.00">
        <route edges="-31622#0 -31622#0-AddedOffRampEdge -31694 -32770#5 -32770#6 -32278#0 -32278#1 -32278#2 -32278#3 -30738 -31778#3 -31778#4 -31708#0 -31708#1 --32674#3 --30472#2"/>
    </vehicle>
    <vehicle id="h11896c1:1" type="passenger5" depart="402.00" departPos="random" departSpeed="0.00" arrivalPos="random" arrivalSpeed="0.00">
        <route edges="--31124 -30998#1 -32844#0 -32844#1 --32232 -32278#3 -32278#4 -32278#5 -32278#6 --30620 -31504#0 -31504#1 -31504#2 -30962#0 -30962#1 -30962#2 --30892 -30892#0 -30892#1 -30892#2 -30892#3 -30892#4 -30892#5 --32750#9 --32750#8 --32750#7 --32750#6 --32750#5 --32750#4 --32750#3 --32750#2 --32750#1 --32750#0 --31496#14 --31496#13 --31496#12 --31496#11 --31496#10 --31496#9 --31806#1 --31806#0"/>
    </vehicle>
    <vehicle id="h25678c1:1" type="passenger1" depart="402.00" departPos="random" departSpeed="0.00" arrivalPos="random" arrivalSpeed="0.00">
        <route edges="--32172#3 --32172#2 --32172#1 --32172#0 -31966#13 --31066#8 -30892#22 -30892#23 -30892#24 -30892#25 -30892#26 -31680#3 --30402"/>
    </vehicle>
    <vehicle id="h6661c2:1" type="passenger3" depart="402.00" departPos="random" departSpeed="0.00" arrivalPos="random" arrivalSpeed="0.00">
        <route edges="--30764#1 --30764#0 --32966#0 --30856#8 --30856#7 --30856#6 --30856#5 --30856#4 --30856#3 --30856#2 --32530#1 --31154 --32280#3 -30608#6 -30608#7 -32468#0 -32468#1 -32468#2 -32468#3 -32468#4 -32468#5 -32468#6 -32468#7 -32382#0 --31818#23 --31818#22 --31818#21 --31818#20 --31818#19 --31818#18 --31818#17 --31818#16 --31818#15 --31818#14 --31818#13 --31818#12 --31818#11 --31818#10 --31818#9"/>
    </vehicle>
    <vehicle id="carIn22301:1" type="passenger1" depart="403.00" departPos="random" departSpeed="0.00" arrivalPos="random" arrivalSpeed="0.00">
        <route edges="--30542#1 --30872#11 --31272#7 --30892#16 --30892#15 --30892#14 --30892#13 --30892#12 --30892#11 --30892#10 --32924#8 --32924#7 --32924#6 --32924#5 --30528#6 --30528#5 --30528#4 --30528#3 --30528#2 --30528#1 --30528#0 --31492#1 --31492#0 --30648#15 --30648#14 --30648#13 -32552#0 -32552#1 -32552#2 -32552#3"/>
    </vehicle>
    <vehicle id="carIn24088:1" type="passenger1" depart="403.00" departPos="random" departSpeed="0.00" arrivalPos="random" arrivalSpeed="0.00">
        <route edges="-31622#0 -31622#0-AddedOffRampEdge -31622#1 -31622#2-AddedOnRampEdge -31622#2 -31622#2-AddedOffRampEdge -31558 -32764#1 -30608#0 -31644 -31900#1 -31900#2 -32432#0 -32432#1 -32432#2 -32432#3 -32432#4 -32432#5 -32432#6 -32432#7 -32432#8 -32432#9 -32432#10 -32432#11 -32432#12 -31766 -31716 -31818#19 -31818#20"/>
    </vehicle>
    <vehicle id="carIn49718:1" type="passenger2b" depart="404.00" departPos="random" departSpeed="0.00" arrivalPos="random" arrivalSpeed="0.00">
        <route edges="--32552#6 --32552#5 --32552#4 --32552#3 --32552#2 --32552#1 --32552#0 -30648#13 -30648#14 -30648#15 -31492#0 -31492#1 -30528#0 -30528#1 -30528#2 -30528#3 -30528#4 --32750#12 --32750#11 --32750#10 --32750#9 --32750#8 --32750#7 --32750#6 --32750#5 --32750#4 --32750#3 --32750#2 --32750#1 --32750#0 --31496#14 --31496#13 --31496#12 --31496#11 --31496#10 --31496#9 --31496#8 --31496#7 --31496#6 --31496#5 --31496#4 -32306#0 -32306#1 -32306#2 -32306#3 -32306#4 -30772#3 -30772#1 -31896 -31578#5 -31578#1 -31578#2 -31684 -31860#1 -31860#2"/>
    </vehicle>
    <vehicle id="carIn49931:1" type="passenger2b" depart="404.00" departPos="random" departSpeed="0.00" arrivalPos="random" arrivalSpeed="0.00">
        <route edges="-32426#0 -32426#0-AddedOffRampEdge -32426#1 -32426#2-AddedOnRampEdge -32426#2 -32426#2-AddedOffRampEdge -31052 -30692 -31156#1 -30668#9-AddedOnRampEdge -30668#9 -30668#9-AddedOffRampEdge -30668#10 -30668#10-AddedOffRampEdge -30908#0 -30908#1 -30908#2 -30706#2-AddedOnRampEdge -30706#2 -30706#3-AddedOnRampEdge -30706#4 -32798-AddedOnRampEdge -32798 -31876#1 -31876#2 -31340#0"/>
    </vehicle>
    <vehicle id="carIn5504:1" type="passenger2a" depart="404.00" departPos="random" departSpeed="0.00" arrivalPos="random" arrivalSpeed="0.00">
        <route edges="--30542#1 --30872#11 --31272#7 --30892#16 --30892#15 --30892#14 --30892#13 --30892#12 --30892#11 --30892#10 --32924#8 --32924#7 --32924#6 --32924#5 --32924#4 --32924#3 --32924#2 --32924#1 --32924#0"/>
    </vehicle>
    <vehicle id="h23254c1:3" type="passenger1" depart="404.00" departPos="random" departSpeed="0.00" arrivalPos="random" arrivalSpeed="0.00">
        <route edges="-31496#7 -31496#8 -31496#9 -31496#10 -31496#11 -31496#12 -31496#13 -31496#14 -32750#0 -32750#1 -32750#2 -32750#3 -32750#4 -32750#5 -32750#6 -32750#7 -32750#8 -32750#9 --30892#5 --30892#4 --30892#3 --30892#2 --30892#1 --30892#0 -30892 -30256#0 --31952#18 --31952#17 --31952#16 --31952#15 --31952#14 --31952#13 --31952#12 -30916#0 -30916#1 -30916#2"/>
    </vehicle>
    <vehicle id="h46038c1:1" type="passenger2b" depart="405.00" departPos="random" departSpeed="0.00" arrivalPos="random" arrivalSpeed="0.00">
        <route edges="-30916#2 -32836#2 -32836#3 -32836#0 --31786 -30342#1 --32056 -31226#4 --32878#8 --32878#7 --32878#6 --32878#5 --32878#4 --31768#3 --31768#2 --31768#1 --31910#2 --31910#1 --31910#0 --32596#0 -32050#2 -32050#3 -31562#0 -32042#0"/>
    </vehicle>
    <vehicle id="h54901c1:1" type="passenger2a" depart="405.00" departPos="random" departSpeed="0.00" arrivalPos="random" arrivalSpeed="0.00">
        <route edges="-31576#1"/>
    </vehicle>
    <vehicle id="carIn18613:1" type="passenger1" depart="406.00" departPos="random" departSpeed="0.00" arrivalPos="random" arrivalSpeed="0.00">
        <route edges="--30542#1 --30872#11 --31272#7 --30892#16 --30892#15 --30892#14 --30892#13 --30892#12 --30892#11 --30892#10 --32924#8 --32924#7 --32924#6 --32924#5 --30528#6 --30528#5 --30528#4 --30528#3 --30528#2 --30528#1 --30528#0 -31492#2 --32674#9 --32674#8 --32674#7 --32674#6 --32674#5 --32674#4 --31708#1 -30952 --30974#0"/>
    </vehicle>
    <vehicle id="carIn46999:1" type="passenger2a" depart="406.00" departPos="random" departSpeed="0.00" arrivalPos="random" arrivalSpeed="0.00">
        <route edges="--30542#1 --30872#11 --31272#7 --30892#16 --30892#15 --30892#14 --30892#13 --30892#12 --30892#11 --30892#10 --30892#9 --30892#8 --30892#7 --30892#6 --30892#5 --30892#4 --30892#3 --30892#2 --30892#1 --30892#0 -30892 -30256#0 --31952#18 --31952#17 --31952#16 --31952#15 --31174#2"/>
    </vehicle>
    <vehicle id="carIn45311:1" type="passenger1" depart="407.00" departPos="random" departSpeed="0.00" arrivalPos="random" arrivalSpeed="0.00">
        <route edges="--31452#1 --31452#0 -32952#1 --31462#3 --31462#2 --31462#1 --31462#0 -31680#1 -31680#2 --30892#26 --30892#25 --30892#24 --30892#23 --30892#22 --30892#21 --30892#20 --30892#19 --30892#18 --30892#17 --31272#6 --31272#5 -31320#3 -31320#4 -31230#0 -31230#1 -31230#2 -31230#3 -31230#4 -31230#5 -32410#0 -32410#1 -32410#2 --30608#10 --30608#9 --30608#8 --30608#7 --30608#6 --30608#5 --30608#4 --30608#3 --30608#2"/>
    </vehicle>
    <vehicle id="h41531c1:1" type="passenger1" depart="407.00" departPos="random" departSpeed="0.00" arrivalPos="random" arrivalSpeed="0.00">
        <route edges="-30648#8 -30648#9 -30648#10 -30648#11 -30648#12 -30648#13 -30648#14 -30648#15 -31492#0 -31492#1 -30528#0 -30528#1 -30528#2 -30528#3 -30528#4 -30528#5 -30528#6 -30528#7 -30528#8 -30528#9 -30528#10 -30528#11 -30528#12 -30528#13 -32850 -31890 -32132 --30456 --31788 -32468#3 -32468#4 -32468#5 -32468#6 -32468#7 -32382#0 --31818#23 --31818#22 --31818#21 --31818#20 --31818#19 --31818#18 --31818#17 --31818#16 --31818#15 --31818#14 --31818#13 --31818#12 --31818#11 --31818#10 --31818#9 --31818#8 --31818#7 --31818#6 -30792 -31976#1 -31976#2 -30650#0"/>
    </vehicle>