<trips>
    <trip id="1625993_25" depart="25000.00" from="-30852" to="-31944#6"/>
</trips>
